#
# CIF written by cell_write_cif: Keith Refson, Apr 2010
#
data_CONGRSrelaxed_geomopt
_audit_creation_date '10:25:36 (GMT-0.0) 9th November 2016'
_audit_creation_method 'Generated by CASTEP 16.100'
 
_symmetry_Int_Tables_number         205
_symmetry_space_group_name_Hall    '-P 2ac 2ab 3'
loop_
_symmetry_equiv_pos_as_xyz
 x,y,z
 -x,-y,-z
 z,x,y
 y,z,x
 -y,-z,-x
 -z,-x,-y
 x+1/2,-y+1/2,-z
 -x,y+1/2,-z+1/2
 -x+1/2,y+1/2,z
 x,-y+1/2,z+1/2
 -x+1/2,-y,z+1/2
 x+1/2,y,-z+1/2
 -z,x+1/2,-y+1/2
 -y+1/2,-z,x+1/2
 -z+1/2,-x,y+1/2
 -y+1/2,z+1/2,x
 -z+1/2,x+1/2,y
 y,-z+1/2,x+1/2
 y+1/2,z,-x+1/2
 -y,z+1/2,-x+1/2
 y+1/2,-z+1/2,-x
 z+1/2,x,-y+1/2
 z+1/2,-x+1/2,-y
 z,-x+1/2,y+1/2
 
_cell_length_a           10.109000000000002
_cell_length_b           10.109000000000002
_cell_length_c           10.109000000000002
_cell_angle_alpha        90.000000000000000
_cell_angle_beta         90.000000000000000
_cell_angle_gamma        90.000000000000000
 
loop_
_atom_site_label
_atom_site_fract_x
_atom_site_fract_y
_atom_site_fract_z
_atom_site_U_iso_or_equiv
_atom_site_occupancy
H1     0.195400772507299  0.195400772507299  0.195400772507299 0.0100 1.0000
H9     0.283169707549598  0.107310542402240  0.981098275181230 0.0100 1.0000
H33    0.286428421401536  0.984428022458814  0.105932444638875 0.0100 1.0000
H57    0.195301985610410  0.892026898810207  0.895733892935338 0.0100 1.0000
C1     0.132503669524742  0.132503669524742  0.132503669524742 0.0100 1.0000
C9     0.219795090021116  0.044978930455662  0.044382842942502 0.0100 1.0000
C33    0.132354500197721  0.956099560078706  0.957899738641261 0.0100 1.0000
