#
# CIF written by cell_write_cif: Keith Refson, Apr 2010
#
data_TRIAMT01_geomopt
_audit_creation_date '10:02:05 (GMT-0.0) 15th February 2017'
_audit_creation_method 'Generated by CASTEP 16.100'
 
_symmetry_Int_Tables_number          70
_symmetry_space_group_name_Hall    '-F 2uv 2vw'
loop_
_symmetry_equiv_pos_as_xyz
 x,y,z
 -x,-y,-z
 -y,-x,x+y+z+1/2
 z,-x-y-z+1/2,x
 -x-y-z+1/2,z,y
 y,x,-x-y-z+1/2
 -z,x+y+z+1/2,-x
 x+y+z+1/2,-z,-y
_cell_length_a           11.099044102196368
_cell_length_b           12.737253790064011
_cell_length_c           14.233273820523511
_cell_angle_alpha        48.208513445531061
_cell_angle_beta         58.828439581550349
_cell_angle_gamma        72.963046972918590
loop_
_atom_site_label
_atom_site_fract_x
_atom_site_fract_y
_atom_site_fract_z
_atom_site_U_iso_or_equiv
_atom_site_occupancy
H1     0.101110207697911  0.150926022601807  0.387236409262530 0.0100 1.0000
H9     0.759044731646829  0.627046784854358  0.352412035735828 0.0100 1.0000
H17    0.177383275550084  0.407948496574520  0.211950440754135 0.0100 1.0000
H25    0.991289912043156  0.261578015306920  0.636791967788015 0.0100 1.0000
H33    0.008684303510475  0.575265347125405  0.239905998995168 0.0100 1.0000
H41    0.150516612033122  0.437264837338011  0.378710644972106 0.0100 1.0000
H49    0.189271526318495  0.263002810734340  0.439335233719181 0.0100 1.0000
H57    0.622264172061019  0.488502953320902  0.490226886877994 0.0100 1.0000
H65    0.816472468320503  0.099818267558714  0.715731346113562 0.0100 1.0000
H73    0.991187473374096  0.063234756570571  0.638862746651628 0.0100 1.0000
H81    0.090337451236644  0.297012102142533  0.159061312677084 0.0100 1.0000
H89    0.035652182087407  0.547339269195174  0.072428692860132 0.0100 1.0000
C1     0.829890729134661  0.420109270865339  0.420109270865339 0.0100 1.0000
C5     0.968365763343811  0.475839307790388  0.280837485284252 0.0100 1.0000
C13    0.078774416334400  0.366710050119811  0.311358735839356 0.0100 1.0000
C21    0.936734952770648  0.506399155712765  0.171584998291958 0.0100 1.0000
C29    0.021887193429240  0.229317898881199  0.366683065508654 0.0100 1.0000
C37    0.970705088627574  0.281391212314350  0.558381068353608 0.0100 1.0000
C45    0.720006259272893  0.528827740967113  0.390417273071642 0.0100 1.0000
C53    0.992010490378307  0.257989509621694  0.257989509621694 0.0100 1.0000
C57    0.107977824289174  0.338891179407621  0.420179840614434 0.0100 1.0000
C65    0.914146430631637  0.143391243400188  0.615562652103520 0.0100 1.0000
